REMARK SMILES N#Cc1ncc(N2C(=O)C3(CCC3)N(c3ccc(C(N)=O)c(F)c3)C2=S)cc1C(F)(F)F
REMARK SMILES IDX 14 1 25 2 26 3 7 4 8 5 9 6 10 7 11 8 12 9 13 10 15 11 18 12
REMARK SMILES IDX 22 13 17 14 24 15 16 16 23 17 19 18 20 19 21 20 6 23 27 24
REMARK SMILES IDX 5 25 28 26 4 27 3 28 2 29 1 30 29 31 30 32 31 33 32 34
REMARK H PARENT 20 21 20 22
ROOT
ATOM      1  N   UNL     1       0.604  -0.323  -0.174  1.00  0.00    -0.303 N 
ATOM      2  C   UNL     1      -0.573   0.396   0.214  1.00  0.00     0.188 C 
ATOM      3  S   UNL     1      -0.529   1.886   0.904  1.00  0.00    -0.039 S 
ATOM      4  N   UNL     1      -1.741  -0.425   0.190  1.00  0.00    -0.253 N 
ATOM      5  C   UNL     1      -1.283  -1.708  -0.223  1.00  0.00     0.259 C 
ATOM      6  O   UNL     1      -2.042  -2.699  -0.399  1.00  0.00    -0.271 OA
ATOM      7  C   UNL     1       0.197  -1.708  -0.457  1.00  0.00     0.127 C 
ATOM      8  C   UNL     1       0.983  -2.793   0.277  1.00  0.00     0.039 C 
ATOM      9  C   UNL     1       1.463  -3.324  -1.073  1.00  0.00     0.006 C 
ATOM     10  C   UNL     1       0.660  -2.250  -1.805  1.00  0.00     0.039 C 
ENDROOT
BRANCH   1  11
ATOM     11  C   UNL     1       1.949   0.145   0.014  1.00  0.00     0.047 A 
ATOM     12  C   UNL     1       4.579   1.090   0.388  1.00  0.00     0.075 A 
ATOM     13  C   UNL     1       3.797   0.692   1.492  1.00  0.00     0.138 A 
ATOM     14  C   UNL     1       4.014   1.029  -0.899  1.00  0.00     0.019 A 
ATOM     15  C   UNL     1       2.493   0.226   1.302  1.00  0.00     0.066 A 
ATOM     16  C   UNL     1       2.710   0.563  -1.083  1.00  0.00     0.027 A 
ATOM     17  F   UNL     1       4.299   0.731   2.753  1.00  0.00    -0.206 F 
BRANCH  12  18
ATOM     18  C   UNL     1       5.962   1.592   0.580  1.00  0.00     0.251 C 
ATOM     19  N   UNL     1       6.944   1.475  -0.453  1.00  0.00    -0.366 N 
ATOM     20  O   UNL     1       6.289   2.130   1.672  1.00  0.00    -0.269 OA
ATOM     21  H   UNL     1       6.765   0.917  -1.316  1.00  0.00     0.159 HD
ATOM     22  H   UNL     1       7.895   1.884  -0.317  1.00  0.00     0.159 HD
ENDBRANCH  12  18
ENDBRANCH   1  11
BRANCH   4  23
ATOM     23  C   UNL     1      -3.099  -0.047   0.470  1.00  0.00     0.070 A 
ATOM     24  C   UNL     1      -3.629   1.147  -0.036  1.00  0.00     0.044 A 
ATOM     25  C   UNL     1      -3.923  -0.877   1.238  1.00  0.00     0.139 A 
ATOM     26  C   UNL     1      -4.960   1.513   0.236  1.00  0.00     0.094 A 
ATOM     27  N   UNL     1      -5.206  -0.517   1.494  1.00  0.00    -0.243 NA
ATOM     28  C   UNL     1      -5.744   0.639   1.023  1.00  0.00     0.152 A 
ATOM     29  C   UNL     1      -7.117   0.934   1.346  1.00  0.00     0.120 C 
ATOM     30  N   UNL     1      -8.220   1.171   1.605  1.00  0.00    -0.191 NA
BRANCH  26  31
ATOM     31  C   UNL     1      -5.534   2.805  -0.310  1.00  0.00     0.419 C 
ATOM     32  F   UNL     1      -4.597   3.517  -1.040  1.00  0.00    -0.166 F 
ATOM     33  F   UNL     1      -5.965   3.600   0.737  1.00  0.00    -0.166 F 
ATOM     34  F   UNL     1      -6.607   2.523  -1.136  1.00  0.00    -0.166 F 
ENDBRANCH  26  31
ENDBRANCH   4  23
TORSDOF 4
