
     RDKit          3D

 45 48  0  0  0  0  0  0  0  0999 V2000
    6.9436    1.4747   -0.4526 N   0  0  0  0  0  0  0  0  0  0  0  0
    5.9616    1.5925    0.5802 C   0  0  0  0  0  0  0  0  0  0  0  0
    6.2889    2.1297    1.6725 O   0  0  0  0  0  0  0  0  0  0  0  0
    4.5785    1.0902    0.3883 C   0  0  0  0  0  0  0  0  0  0  0  0
    3.7971    0.6916    1.4924 C   0  0  0  0  0  0  0  0  0  0  0  0
    2.4927    0.2258    1.3020 C   0  0  0  0  0  0  0  0  0  0  0  0
    1.9492    0.1448    0.0142 C   0  0  0  0  0  0  0  0  0  0  0  0
    2.7095    0.5628   -1.0827 C   0  0  0  0  0  0  0  0  0  0  0  0
    4.0141    1.0289   -0.8995 C   0  0  0  0  0  0  0  0  0  0  0  0
    0.6043   -0.3231   -0.1737 N   0  0  0  0  0  0  0  0  0  0  0  0
   -0.5729    0.3956    0.2137 C   0  0  0  0  0  0  0  0  0  0  0  0
   -0.5290    1.8860    0.9037 S   0  0  0  0  0  0  0  0  0  0  0  0
   -1.7407   -0.4251    0.1902 N   0  0  0  0  0  0  0  0  0  0  0  0
   -1.2831   -1.7082   -0.2234 C   0  0  0  0  0  0  0  0  0  0  0  0
   -2.0423   -2.6991   -0.3988 O   0  0  0  0  0  0  0  0  0  0  0  0
    0.1965   -1.7079   -0.4569 C   0  0  0  0  0  0  0  0  0  0  0  0
    0.9827   -2.7930    0.2767 C   0  0  0  0  0  0  0  0  0  0  0  0
    1.4633   -3.3239   -1.0730 C   0  0  0  0  0  0  0  0  0  0  0  0
    0.6598   -2.2499   -1.8050 C   0  0  0  0  0  0  0  0  0  0  0  0
   -3.0994   -0.0471    0.4697 C   0  0  0  0  0  0  0  0  0  0  0  0
   -3.6293    1.1472   -0.0357 C   0  0  0  0  0  0  0  0  0  0  0  0
   -4.9602    1.5133    0.2361 C   0  0  0  0  0  0  0  0  0  0  0  0
   -5.7437    0.6387    1.0230 C   0  0  0  0  0  0  0  0  0  0  0  0
   -5.2062   -0.5174    1.4941 N   0  0  0  0  0  0  0  0  0  0  0  0
   -3.9228   -0.8769    1.2375 C   0  0  0  0  0  0  0  0  0  0  0  0
   -7.1170    0.9342    1.3457 C   0  0  0  0  0  0  0  0  0  0  0  0
   -8.2196    1.1710    1.6051 N   0  0  0  0  0  0  0  0  0  0  0  0
   -5.5341    2.8050   -0.3098 C   0  0  0  0  0  0  0  0  0  0  0  0
   -4.5974    3.5170   -1.0396 F   0  0  0  0  0  0  0  0  0  0  0  0
   -5.9645    3.6004    0.7368 F   0  0  0  0  0  0  0  0  0  0  0  0
   -6.6068    2.5225   -1.1359 F   0  0  0  0  0  0  0  0  0  0  0  0
    4.2985    0.7305    2.7532 F   0  0  0  0  0  0  0  0  0  0  0  0
    6.7651    0.9173   -1.3165 H   0  0  0  0  0  0  0  0  0  0  0  0
    7.8946    1.8840   -0.3168 H   0  0  0  0  0  0  0  0  0  0  0  0
    1.9034   -0.0817    2.1570 H   0  0  0  0  0  0  0  0  0  0  0  0
    2.2857    0.5489   -2.0780 H   0  0  0  0  0  0  0  0  0  0  0  0
    4.5661    1.3680   -1.7659 H   0  0  0  0  0  0  0  0  0  0  0  0
    0.3375   -3.5280    0.8065 H   0  0  0  0  0  0  0  0  0  0  0  0
    1.8196   -2.4190    0.9016 H   0  0  0  0  0  0  0  0  0  0  0  0
    2.5599   -3.2006   -1.2112 H   0  0  0  0  0  0  0  0  0  0  0  0
    1.0938   -4.3513   -1.2837 H   0  0  0  0  0  0  0  0  0  0  0  0
    1.3079   -1.5551   -2.3766 H   0  0  0  0  0  0  0  0  0  0  0  0
   -0.1607   -2.6867   -2.4160 H   0  0  0  0  0  0  0  0  0  0  0  0
   -3.0035    1.7757   -0.6553 H   0  0  0  0  0  0  0  0  0  0  0  0
   -3.5406   -1.8024    1.6470 H   0  0  0  0  0  0  0  0  0  0  0  0
  1  2  1  0
  2  3  2  0
  2  4  1  0
  4  5  2  0
  5  6  1  0
  6  7  2  0
  7  8  1  0
  8  9  2  0
  7 10  1  0
 10 11  1  0
 11 12  2  0
 11 13  1  0
 13 14  1  0
 14 15  2  0
 14 16  1  0
 16 17  1  0
 17 18  1  0
 18 19  1  0
 13 20  1  0
 20 21  2  0
 21 22  1  0
 22 23  2  0
 23 24  1  0
 24 25  2  0
 23 26  1  0
 26 27  3  0
 22 28  1  0
 28 29  1  0
 28 30  1  0
 28 31  1  0
  5 32  1  0
  9  4  1  0
 16 10  1  0
 19 16  1  0
 25 20  1  0
  1 33  1  0
  1 34  1  0
  6 35  1  0
  8 36  1  0
  9 37  1  0
 17 38  1  0
 17 39  1  0
 18 40  1  0
 18 41  1  0
 19 42  1  0
 19 43  1  0
 21 44  1  0
 25 45  1  0
M  END
$$$$
