
     RDKit          3D

 43 44  0  0  0  0  0  0  0  0999 V2000
    0.9373    0.0521   -1.6803 C   0  0  0  0  0  0  0  0  0  0  0  0
    1.0040    0.0095   -0.1374 C   0  0  0  0  0  0  0  0  0  0  0  0
    1.3775   -1.4041    0.3751 C   0  0  0  0  0  0  0  0  0  0  0  0
    2.9656   -2.0213   -0.1958 S   0  0  0  0  0  0  0  0  0  0  0  0
    2.8845   -2.3506   -1.6604 O   0  0  0  0  0  0  0  0  0  0  0  0
    3.2866   -3.2857    0.5503 O   0  0  0  0  0  0  0  0  0  0  0  0
    4.2568   -0.8585    0.0951 C   0  0  0  0  0  0  0  0  0  0  0  0
    4.8540   -0.1687   -0.9710 C   0  0  0  0  0  0  0  0  0  0  0  0
    5.8637    0.7667   -0.7237 C   0  0  0  0  0  0  0  0  0  0  0  0
    6.2808    1.0180    0.5870 C   0  0  0  0  0  0  0  0  0  0  0  0
    5.6873    0.3337    1.6522 C   0  0  0  0  0  0  0  0  0  0  0  0
    4.6773   -0.6019    1.4077 C   0  0  0  0  0  0  0  0  0  0  0  0
    7.2590    1.9260    0.8251 F   0  0  0  0  0  0  0  0  0  0  0  0
   -0.3488    0.3801    0.4484 C   0  0  0  0  0  0  0  0  0  0  0  0
   -0.4002    1.1473    1.4492 O   0  0  0  0  0  0  0  0  0  0  0  0
   -1.5573   -0.2087   -0.0642 N   0  0  0  0  0  0  0  0  0  0  0  0
   -2.8760    0.2806    0.2359 C   0  0  0  0  0  0  0  0  0  0  0  0
   -3.9482   -0.6217    0.2907 C   0  0  0  0  0  0  0  0  0  0  0  0
   -5.2587   -0.1789    0.5608 C   0  0  0  0  0  0  0  0  0  0  0  0
   -5.4823    1.2042    0.7620 C   0  0  0  0  0  0  0  0  0  0  0  0
   -4.4133    2.1049    0.6836 C   0  0  0  0  0  0  0  0  0  0  0  0
   -3.1220    1.6500    0.4167 C   0  0  0  0  0  0  0  0  0  0  0  0
   -6.8001    1.7248    1.0406 C   0  0  0  0  0  0  0  0  0  0  0  0
   -7.8560    2.1424    1.2639 N   0  0  0  0  0  0  0  0  0  0  0  0
   -6.4038   -1.1702    0.6302 C   0  0  0  0  0  0  0  0  0  0  0  0
   -7.3493   -0.8541   -0.3287 F   0  0  0  0  0  0  0  0  0  0  0  0
   -6.9905   -1.1141    1.8816 F   0  0  0  0  0  0  0  0  0  0  0  0
   -5.9775   -2.4686    0.4085 F   0  0  0  0  0  0  0  0  0  0  0  0
    1.9749    0.9256    0.3142 O   0  0  0  0  0  0  0  0  0  0  0  0
    0.4491    0.9906   -2.0214 H   0  0  0  0  0  0  0  0  0  0  0  0
    0.3662   -0.8102   -2.0847 H   0  0  0  0  0  0  0  0  0  0  0  0
    1.9580    0.0344   -2.1148 H   0  0  0  0  0  0  0  0  0  0  0  0
    0.6012   -2.1390    0.0720 H   0  0  0  0  0  0  0  0  0  0  0  0
    1.4030   -1.3913    1.4865 H   0  0  0  0  0  0  0  0  0  0  0  0
    4.5382   -0.3485   -1.9902 H   0  0  0  0  0  0  0  0  0  0  0  0
    6.3210    1.2976   -1.5487 H   0  0  0  0  0  0  0  0  0  0  0  0
    6.0075    0.5292    2.6674 H   0  0  0  0  0  0  0  0  0  0  0  0
    4.2190   -1.1214    2.2397 H   0  0  0  0  0  0  0  0  0  0  0  0
   -1.4806   -1.0903   -0.6192 H   0  0  0  0  0  0  0  0  0  0  0  0
   -3.7465   -1.6732    0.1305 H   0  0  0  0  0  0  0  0  0  0  0  0
   -4.5803    3.1668    0.8216 H   0  0  0  0  0  0  0  0  0  0  0  0
   -2.3221    2.3731    0.3281 H   0  0  0  0  0  0  0  0  0  0  0  0
    1.7412    1.8233   -0.0426 H   0  0  0  0  0  0  0  0  0  0  0  0
  1  2  1  0
  2  3  1  0
  3  4  1  0
  4  5  2  0
  4  6  2  0
  4  7  1  0
  7  8  2  0
  8  9  1  0
  9 10  2  0
 10 11  1  0
 11 12  2  0
 10 13  1  0
  2 14  1  0
 14 15  2  0
 14 16  1  0
 16 17  1  0
 17 18  2  0
 18 19  1  0
 19 20  2  0
 20 21  1  0
 21 22  2  0
 20 23  1  0
 23 24  3  0
 19 25  1  0
 25 26  1  0
 25 27  1  0
 25 28  1  0
  2 29  1  0
 12  7  1  0
 22 17  1  0
  1 30  1  0
  1 31  1  0
  1 32  1  0
  3 33  1  0
  3 34  1  0
  8 35  1  0
  9 36  1  0
 11 37  1  0
 12 38  1  0
 16 39  1  0
 18 40  1  0
 21 41  1  0
 22 42  1  0
 29 43  1  0
M  END
$$$$
