
     RDKit          3D

 51 54  0  0  0  0  0  0  0  0999 V2000
    2.4529    0.7580    0.5724 C   0  0  0  0  0  0  0  0  0  0  0  0
    1.8180   -0.5915    0.1194 C   0  0  2  0  0  0  0  0  0  0  0  0
    2.4373   -1.7480    0.9674 C   0  0  0  0  0  0  0  0  0  0  0  0
    3.9382   -1.9707    0.7097 C   0  0  0  0  0  0  0  0  0  0  0  0
    4.2430   -2.0364   -0.7599 C   0  0  0  0  0  0  0  0  0  0  0  0
    5.0714   -2.8328   -1.1746 O   0  0  0  0  0  0  0  0  0  0  0  0
    3.6124   -1.0522   -1.7033 C   0  0  0  0  0  0  0  0  0  0  0  0
    2.1116   -0.9045   -1.3915 C   0  0  2  0  0  0  0  0  0  0  0  0
    1.4471    0.1079   -2.3419 C   0  0  0  0  0  0  0  0  0  0  0  0
   -0.0711    0.1217   -2.1417 C   0  0  0  0  0  0  0  0  0  0  0  0
   -0.4425    0.4419   -0.6810 C   0  0  2  0  0  0  0  0  0  0  0  0
    0.2497   -0.5700    0.2996 C   0  0  2  0  0  0  0  0  0  0  0  0
   -0.2304   -0.3828    1.7760 C   0  0  0  0  0  0  0  0  0  0  0  0
   -1.7717   -0.3339    1.9154 C   0  0  0  0  0  0  0  0  0  0  0  0
   -2.3868    0.7128    0.9617 C   0  0  1  0  0  0  0  0  0  0  0  0
   -1.9675    0.3500   -0.4683 C   0  0  1  0  0  0  0  0  0  0  0  0
   -2.8948    1.1664   -1.3591 C   0  0  0  0  0  0  0  0  0  0  0  0
   -4.2161    1.2207   -0.5710 C   0  0  0  0  0  0  0  0  0  0  0  0
   -3.9226    0.6373    0.8275 C   0  0  2  0  0  0  0  0  0  0  0  0
   -4.5984    1.3616    1.8233 O   0  0  0  0  0  0  0  0  0  0  0  0
   -1.9697    2.1539    1.4016 C   0  0  0  0  0  0  0  0  0  0  0  0
    2.3425    0.9020    1.6662 H   0  0  0  0  0  0  0  0  0  0  0  0
    2.0044    1.6327    0.0666 H   0  0  0  0  0  0  0  0  0  0  0  0
    3.5395    0.7942    0.3653 H   0  0  0  0  0  0  0  0  0  0  0  0
    2.3164   -1.5450    2.0524 H   0  0  0  0  0  0  0  0  0  0  0  0
    1.9019   -2.6987    0.7487 H   0  0  0  0  0  0  0  0  0  0  0  0
    4.2487   -2.9185    1.2014 H   0  0  0  0  0  0  0  0  0  0  0  0
    4.5326   -1.1521    1.1671 H   0  0  0  0  0  0  0  0  0  0  0  0
    4.1370   -0.0771   -1.6291 H   0  0  0  0  0  0  0  0  0  0  0  0
    3.7343   -1.4147   -2.7481 H   0  0  0  0  0  0  0  0  0  0  0  0
    1.6571   -1.8966   -1.6248 H   0  0  0  0  0  0  0  0  0  0  0  0
    1.6564   -0.1798   -3.3956 H   0  0  0  0  0  0  0  0  0  0  0  0
    1.8620    1.1268   -2.1893 H   0  0  0  0  0  0  0  0  0  0  0  0
   -0.5063    0.8897   -2.8170 H   0  0  0  0  0  0  0  0  0  0  0  0
   -0.4898   -0.8666   -2.4355 H   0  0  0  0  0  0  0  0  0  0  0  0
   -0.1143    1.4794   -0.4821 H   0  0  0  0  0  0  0  0  0  0  0  0
   -0.1124   -1.5838    0.0081 H   0  0  0  0  0  0  0  0  0  0  0  0
    0.2028    0.5335    2.2203 H   0  0  0  0  0  0  0  0  0  0  0  0
    0.1193   -1.2353    2.3937 H   0  0  0  0  0  0  0  0  0  0  0  0
   -2.1818   -1.3438    1.6919 H   0  0  0  0  0  0  0  0  0  0  0  0
   -2.0403   -0.0960    2.9676 H   0  0  0  0  0  0  0  0  0  0  0  0
   -2.2458   -0.7173   -0.6566 H   0  0  0  0  0  0  0  0  0  0  0  0
   -2.4883    2.1894   -1.5160 H   0  0  0  0  0  0  0  0  0  0  0  0
   -3.0383    0.6754   -2.3464 H   0  0  0  0  0  0  0  0  0  0  0  0
   -5.0005    0.6193   -1.0803 H   0  0  0  0  0  0  0  0  0  0  0  0
   -4.5666    2.2739   -0.4990 H   0  0  0  0  0  0  0  0  0  0  0  0
   -4.2610   -0.4267    0.8422 H   0  0  0  0  0  0  0  0  0  0  0  0
   -4.5118    0.8349    2.6601 H   0  0  0  0  0  0  0  0  0  0  0  0
   -2.4225    2.9306    0.7514 H   0  0  0  0  0  0  0  0  0  0  0  0
   -2.3094    2.3478    2.4412 H   0  0  0  0  0  0  0  0  0  0  0  0
   -0.8755    2.3133    1.3940 H   0  0  0  0  0  0  0  0  0  0  0  0
  2  1  1  1
  2  3  1  0
  3  4  1  0
  4  5  1  0
  5  6  2  0
  5  7  1  0
  7  8  1  0
  8  9  1  0
  9 10  1  0
 10 11  1  0
 11 12  1  0
 12 13  1  0
 13 14  1  0
 14 15  1  0
 15 16  1  0
 16 17  1  0
 17 18  1  0
 18 19  1  0
 19 20  1  0
 15 21  1  1
  8  2  1  0
 12  2  1  0
 16 11  1  0
 19 15  1  0
  1 22  1  0
  1 23  1  0
  1 24  1  0
  3 25  1  0
  3 26  1  0
  4 27  1  0
  4 28  1  0
  7 29  1  0
  7 30  1  0
  8 31  1  6
  9 32  1  0
  9 33  1  0
 10 34  1  0
 10 35  1  0
 11 36  1  1
 12 37  1  6
 13 38  1  0
 13 39  1  0
 14 40  1  0
 14 41  1  0
 16 42  1  6
 17 43  1  0
 17 44  1  0
 18 45  1  0
 18 46  1  0
 19 47  1  6
 20 48  1  0
 21 49  1  0
 21 50  1  0
 21 51  1  0
M  END
$$$$
