REMARK SMILES C[C@]12CCC(=O)C[C@@H]1CC[C@@H]1[C@@H]2CC[C@]2(C)[C@@H](O)CC[C@@H]12
REMARK SMILES IDX 1 1 2 2 3 3 4 4 5 5 6 6 7 7 8 8 9 9 10 10 11 11 12 12 13 13
REMARK SMILES IDX 14 14 15 15 21 16 20 17 19 18 17 19 16 20 18 21
REMARK H PARENT 18 22
ROOT
ATOM      1  C   UNL     1       2.453   0.758   0.572  1.00  0.00     0.012 C 
ATOM      2  C   UNL     1       1.818  -0.592   0.119  1.00  0.00    -0.026 C 
ATOM      3  C   UNL     1       2.437  -1.748   0.967  1.00  0.00     0.015 C 
ATOM      4  C   UNL     1       3.938  -1.971   0.710  1.00  0.00     0.076 C 
ATOM      5  C   UNL     1       4.243  -2.036  -0.760  1.00  0.00     0.133 C 
ATOM      6  O   UNL     1       5.071  -2.833  -1.175  1.00  0.00    -0.300 OA
ATOM      7  C   UNL     1       3.612  -1.052  -1.703  1.00  0.00     0.079 C 
ATOM      8  C   UNL     1       2.112  -0.905  -1.392  1.00  0.00     0.002 C 
ATOM      9  C   UNL     1       1.447   0.108  -2.342  1.00  0.00     0.005 C 
ATOM     10  C   UNL     1      -0.071   0.122  -2.142  1.00  0.00     0.004 C 
ATOM     11  C   UNL     1      -0.443   0.442  -0.681  1.00  0.00    -0.004 C 
ATOM     12  C   UNL     1       0.250  -0.570   0.300  1.00  0.00    -0.001 C 
ATOM     13  C   UNL     1      -0.230  -0.383   1.776  1.00  0.00     0.005 C 
ATOM     14  C   UNL     1      -1.772  -0.334   1.915  1.00  0.00     0.010 C 
ATOM     15  C   UNL     1      -2.387   0.713   0.962  1.00  0.00    -0.003 C 
ATOM     16  C   UNL     1      -1.968   0.350  -0.468  1.00  0.00     0.001 C 
ATOM     17  C   UNL     1      -2.895   1.166  -1.359  1.00  0.00     0.007 C 
ATOM     18  C   UNL     1      -4.216   1.221  -0.571  1.00  0.00     0.032 C 
ATOM     19  C   UNL     1      -3.923   0.637   0.828  1.00  0.00     0.120 C 
ATOM     20  C   UNL     1      -1.970   2.154   1.402  1.00  0.00     0.014 C 
ENDROOT
BRANCH  19  21
ATOM     21  O   UNL     1      -4.598   1.362   1.823  1.00  0.00    -0.393 OA
ATOM     22  H   UNL     1      -4.512   0.835   2.660  1.00  0.00     0.210 HD
ENDBRANCH  19  21
TORSDOF 1
