
     RDKit          3D

 48 50  0  0  0  0  0  0  0  0999 V2000
   -0.2896    1.2978   -2.9150 C   0  0  0  0  0  0  0  0  0  0  0  0
   -0.5309    0.1676   -1.9052 C   0  0  0  0  0  0  0  0  0  0  0  0
   -1.9470    0.2047   -1.3965 C   0  0  0  0  0  0  0  0  0  0  0  0
   -2.9689    0.1032   -2.1280 O   0  0  0  0  0  0  0  0  0  0  0  0
   -2.0102    0.4008    0.0124 N   0  0  0  0  0  0  0  0  0  0  0  0
   -0.6533    0.5110    0.4246 C   0  0  0  0  0  0  0  0  0  0  0  0
   -0.1745    0.4675    1.9954 S   0  0  0  0  0  0  0  0  0  0  0  0
    0.2498    0.3873   -0.6772 N   0  0  0  0  0  0  0  0  0  0  0  0
    1.6726    0.2352   -0.5636 C   0  0  0  0  0  0  0  0  0  0  0  0
    2.2145   -0.9450   -0.0399 C   0  0  0  0  0  0  0  0  0  0  0  0
    3.5999   -1.1007    0.0688 C   0  0  0  0  0  0  0  0  0  0  0  0
    4.4636   -0.0640   -0.3392 C   0  0  0  0  0  0  0  0  0  0  0  0
    3.9107    1.1117   -0.8770 C   0  0  0  0  0  0  0  0  0  0  0  0
    2.5256    1.2616   -0.9823 C   0  0  0  0  0  0  0  0  0  0  0  0
    5.9346   -0.1969   -0.2352 C   0  0  0  0  0  0  0  0  0  0  0  0
    6.6670    0.3460   -1.1073 O   0  0  0  0  0  0  0  0  0  0  0  0
    6.5380   -0.9031    0.8588 N   0  0  0  0  0  0  0  0  0  0  0  0
    7.9708   -1.1676    0.9006 C   0  0  0  0  0  0  0  0  0  0  0  0
    4.0888   -2.2823    0.5227 F   0  0  0  0  0  0  0  0  0  0  0  0
   -3.1981    0.5159    0.8141 C   0  0  0  0  0  0  0  0  0  0  0  0
   -4.2587   -0.3850    0.6368 C   0  0  0  0  0  0  0  0  0  0  0  0
   -5.4339   -0.2824    1.4080 C   0  0  0  0  0  0  0  0  0  0  0  0
   -5.5297    0.7526    2.3693 C   0  0  0  0  0  0  0  0  0  0  0  0
   -4.4701    1.6525    2.5376 C   0  0  0  0  0  0  0  0  0  0  0  0
   -3.3145    1.5368    1.7654 C   0  0  0  0  0  0  0  0  0  0  0  0
   -6.7045    0.9131    3.1934 C   0  0  0  0  0  0  0  0  0  0  0  0
   -7.6459    1.0421    3.8540 N   0  0  0  0  0  0  0  0  0  0  0  0
   -6.5689   -1.2678    1.2101 C   0  0  0  0  0  0  0  0  0  0  0  0
   -7.7164   -0.5866    0.8460 F   0  0  0  0  0  0  0  0  0  0  0  0
   -6.2826   -2.1944    0.2221 F   0  0  0  0  0  0  0  0  0  0  0  0
   -6.8016   -1.9498    2.3908 F   0  0  0  0  0  0  0  0  0  0  0  0
   -0.2218   -1.2079   -2.5159 C   0  0  0  0  0  0  0  0  0  0  0  0
   -0.4673    2.2863   -2.4391 H   0  0  0  0  0  0  0  0  0  0  0  0
    0.7551    1.2671   -3.2898 H   0  0  0  0  0  0  0  0  0  0  0  0
   -0.9731    1.1937   -3.7850 H   0  0  0  0  0  0  0  0  0  0  0  0
    1.5589   -1.7495    0.2692 H   0  0  0  0  0  0  0  0  0  0  0  0
    4.5514    1.9227   -1.2009 H   0  0  0  0  0  0  0  0  0  0  0  0
    2.1170    2.1816   -1.3801 H   0  0  0  0  0  0  0  0  0  0  0  0
    5.9560   -1.1955    1.6752 H   0  0  0  0  0  0  0  0  0  0  0  0
    8.2625   -1.7940    0.0315 H   0  0  0  0  0  0  0  0  0  0  0  0
    8.5327   -0.2102    0.8746 H   0  0  0  0  0  0  0  0  0  0  0  0
    8.2278   -1.7085    1.8357 H   0  0  0  0  0  0  0  0  0  0  0  0
   -4.1511   -1.1751   -0.0946 H   0  0  0  0  0  0  0  0  0  0  0  0
   -4.5394    2.4511    3.2669 H   0  0  0  0  0  0  0  0  0  0  0  0
   -2.5163    2.2558    1.8974 H   0  0  0  0  0  0  0  0  0  0  0  0
   -0.3814   -2.0101   -1.7633 H   0  0  0  0  0  0  0  0  0  0  0  0
   -0.8816   -1.4027   -3.3885 H   0  0  0  0  0  0  0  0  0  0  0  0
    0.8342   -1.2519   -2.8579 H   0  0  0  0  0  0  0  0  0  0  0  0
  1  2  1  0
  2  3  1  0
  3  4  2  0
  3  5  1  0
  5  6  1  0
  6  7  2  0
  6  8  1  0
  8  9  1  0
  9 10  2  0
 10 11  1  0
 11 12  2  0
 12 13  1  0
 13 14  2  0
 12 15  1  0
 15 16  2  0
 15 17  1  0
 17 18  1  0
 11 19  1  0
  5 20  1  0
 20 21  2  0
 21 22  1  0
 22 23  2  0
 23 24  1  0
 24 25  2  0
 23 26  1  0
 26 27  3  0
 22 28  1  0
 28 29  1  0
 28 30  1  0
 28 31  1  0
  2 32  1  0
  8  2  1  0
 14  9  1  0
 25 20  1  0
  1 33  1  0
  1 34  1  0
  1 35  1  0
 10 36  1  0
 13 37  1  0
 14 38  1  0
 17 39  1  0
 18 40  1  0
 18 41  1  0
 18 42  1  0
 21 43  1  0
 24 44  1  0
 25 45  1  0
 32 46  1  0
 32 47  1  0
 32 48  1  0
M  END
$$$$
