REMARK SMILES CNC(=O)c1ccc(N2C(=S)N(c3ccc(C#N)c(C(F)(F)F)c3)C(=O)C2(C)C)cc1F
REMARK SMILES IDX 28 1 27 2 25 3 26 4 12 5 10 6 11 7 9 8 29 9 8 10 30 11 7 12
REMARK SMILES IDX 31 13 6 14 5 15 32 16 3 17 4 18 2 19 1 20 13 22 24 23 14 24
REMARK SMILES IDX 19 25 15 26 16 27 17 28 18 29 20 30 21 31 22 32 23 33
REMARK H PARENT 2 21
ROOT
ATOM      1  C   UNL     1      -0.290   1.298  -2.915  1.00  0.00     0.046 C 
ATOM      2  C   UNL     1      -0.531   0.168  -1.905  1.00  0.00     0.121 C 
ATOM      3  C   UNL     1      -1.947   0.205  -1.397  1.00  0.00     0.259 C 
ATOM      4  O   UNL     1      -2.969   0.103  -2.128  1.00  0.00    -0.271 OA
ATOM      5  N   UNL     1      -2.010   0.401   0.012  1.00  0.00    -0.255 N 
ATOM      6  C   UNL     1      -0.653   0.511   0.425  1.00  0.00     0.188 C 
ATOM      7  S   UNL     1      -0.175   0.467   1.995  1.00  0.00    -0.039 S 
ATOM      8  N   UNL     1       0.250   0.387  -0.677  1.00  0.00    -0.303 N 
ATOM      9  C   UNL     1      -0.222  -1.208  -2.516  1.00  0.00     0.046 C 
ENDROOT
BRANCH   8  10
ATOM     10  C   UNL     1       1.673   0.235  -0.564  1.00  0.00     0.047 A 
ATOM     11  C   UNL     1       2.214  -0.945  -0.040  1.00  0.00     0.066 A 
ATOM     12  C   UNL     1       2.526   1.262  -0.982  1.00  0.00     0.027 A 
ATOM     13  C   UNL     1       3.600  -1.101   0.069  1.00  0.00     0.138 A 
ATOM     14  C   UNL     1       3.911   1.112  -0.877  1.00  0.00     0.019 A 
ATOM     15  C   UNL     1       4.464  -0.064  -0.339  1.00  0.00     0.075 A 
ATOM     16  F   UNL     1       4.089  -2.282   0.523  1.00  0.00    -0.206 F 
BRANCH  15  17
ATOM     17  C   UNL     1       5.935  -0.197  -0.235  1.00  0.00     0.253 C 
ATOM     18  O   UNL     1       6.667   0.346  -1.107  1.00  0.00    -0.269 OA
ATOM     19  N   UNL     1       6.538  -0.903   0.859  1.00  0.00    -0.355 N 
ATOM     20  C   UNL     1       7.971  -1.168   0.901  1.00  0.00     0.143 C 
ATOM     21  H   UNL     1       5.956  -1.196   1.675  1.00  0.00     0.163 HD
ENDBRANCH  15  17
ENDBRANCH   8  10
BRANCH   5  22
ATOM     22  C   UNL     1      -3.198   0.516   0.814  1.00  0.00     0.052 A 
ATOM     23  C   UNL     1      -4.259  -0.385   0.637  1.00  0.00     0.041 A 
ATOM     24  C   UNL     1      -3.315   1.537   1.765  1.00  0.00     0.028 A 
ATOM     25  C   UNL     1      -5.434  -0.282   1.408  1.00  0.00     0.075 A 
ATOM     26  C   UNL     1      -4.470   1.653   2.538  1.00  0.00     0.022 A 
ATOM     27  C   UNL     1      -5.530   0.753   2.369  1.00  0.00     0.064 A 
ATOM     28  C   UNL     1      -6.705   0.913   3.193  1.00  0.00     0.100 C 
ATOM     29  N   UNL     1      -7.646   1.042   3.854  1.00  0.00    -0.192 NA
BRANCH  25  30
ATOM     30  C   UNL     1      -6.569  -1.268   1.210  1.00  0.00     0.417 C 
ATOM     31  F   UNL     1      -7.716  -0.587   0.846  1.00  0.00    -0.166 F 
ATOM     32  F   UNL     1      -6.283  -2.194   0.222  1.00  0.00    -0.166 F 
ATOM     33  F   UNL     1      -6.802  -1.950   2.391  1.00  0.00    -0.166 F 
ENDBRANCH  25  30
ENDBRANCH   5  22
TORSDOF 4
