MODEL 1
REMARK VINA RESULT:     6.700      0.000      0.000
REMARK INTER + INTRA:           8.185
REMARK INTER:                   8.266
REMARK INTRA:                  -0.081
REMARK UNBOUND:                -0.081
REMARK SMILES N#Cc1ncc(N2C(=O)C3(CCC3)N(c3ccc(C(N)=O)c(F)c3)C2=S)cc1C(F)(F)F
REMARK SMILES IDX 14 1 25 2 26 3 7 4 8 5 9 6 10 7 11 8 12 9 13 10 15 11 18 12
REMARK SMILES IDX 22 13 17 14 24 15 16 16 23 17 19 18 20 19 21 20 6 23 27 24
REMARK SMILES IDX 5 25 28 26 4 27 3 28 2 29 1 30 29 31 30 32 31 33 32 34
REMARK H PARENT 20 21 20 22
ROOT
ATOM      1  N   UNL     1      -0.750  62.812   4.945  1.00  0.00    -0.303 N 
ATOM      2  C   UNL     1      -0.723  64.007   4.155  1.00  0.00     0.188 C 
ATOM      3  S   UNL     1       0.275  64.209   2.866  1.00  0.00    -0.039 S 
ATOM      4  N   UNL     1      -1.441  65.078   4.768  1.00  0.00    -0.253 N 
ATOM      5  C   UNL     1      -1.935  64.540   5.990  1.00  0.00     0.259 C 
ATOM      6  O   UNL     1      -2.658  65.185   6.797  1.00  0.00    -0.271 OA
ATOM      7  C   UNL     1      -1.518  63.111   6.163  1.00  0.00     0.127 C 
ATOM      8  C   UNL     1      -0.824  62.779   7.483  1.00  0.00     0.039 C 
ATOM      9  C   UNL     1      -1.935  61.774   7.786  1.00  0.00     0.006 C 
ATOM     10  C   UNL     1      -2.637  62.123   6.474  1.00  0.00     0.039 C 
ENDROOT
BRANCH   1  11
ATOM     11  C   UNL     1       0.096  61.671   4.733  1.00  0.00     0.047 A 
ATOM     12  C   UNL     1       1.756  59.435   4.290  1.00  0.00     0.075 A 
ATOM     13  C   UNL     1       2.306  60.732   4.367  1.00  0.00     0.138 A 
ATOM     14  C   UNL     1       0.363  59.282   4.415  1.00  0.00     0.019 A 
ATOM     15  C   UNL     1       1.479  61.837   4.585  1.00  0.00     0.066 A 
ATOM     16  C   UNL     1      -0.459  60.391   4.632  1.00  0.00     0.027 A 
ATOM     17  F   UNL     1       3.644  60.930   4.255  1.00  0.00    -0.206 F 
BRANCH  12  18
ATOM     18  C   UNL     1       2.625  58.256   4.053  1.00  0.00     0.251 C 
ATOM     19  N   UNL     1       3.298  57.601   5.131  1.00  0.00    -0.366 N 
ATOM     20  O   UNL     1       2.783  57.818   2.882  1.00  0.00    -0.269 OA
ATOM     21  H   UNL     1       3.312  58.006   6.093  1.00  0.00     0.159 HD
ATOM     22  H   UNL     1       3.860  56.740   4.949  1.00  0.00     0.159 HD
ENDBRANCH  12  18
ENDBRANCH   1  11
BRANCH   4  23
ATOM     23  C   UNL     1      -1.671  66.402   4.258  1.00  0.00     0.070 A 
ATOM     24  C   UNL     1      -0.597  67.253   3.965  1.00  0.00     0.044 A 
ATOM     25  C   UNL     1      -2.973  66.857   4.025  1.00  0.00     0.139 A 
ATOM     26  C   UNL     1      -0.823  68.547   3.462  1.00  0.00     0.094 A 
ATOM     27  N   UNL     1      -3.182  68.106   3.537  1.00  0.00    -0.243 NA
ATOM     28  C   UNL     1      -2.160  68.956   3.253  1.00  0.00     0.152 A 
ATOM     29  C   UNL     1      -2.482  70.262   2.736  1.00  0.00     0.120 C 
ATOM     30  N   UNL     1      -2.741  71.311   2.321  1.00  0.00    -0.191 NA
BRANCH  26  31
ATOM     31  C   UNL     1       0.338  69.468   3.146  1.00  0.00     0.419 C 
ATOM     32  F   UNL     1       0.368  70.566   3.990  1.00  0.00    -0.166 F 
ATOM     33  F   UNL     1       0.228  69.924   1.844  1.00  0.00    -0.166 F 
ATOM     34  F   UNL     1       1.528  68.778   3.286  1.00  0.00    -0.166 F 
ENDBRANCH  26  31
ENDBRANCH   4  23
TORSDOF 4
ENDMDL
MODEL 2
REMARK VINA RESULT:     7.002      1.885      8.444
REMARK INTER + INTRA:           8.559
REMARK INTER:                   7.618
REMARK INTRA:                   0.941
REMARK UNBOUND:                -0.081
REMARK SMILES N#Cc1ncc(N2C(=O)C3(CCC3)N(c3ccc(C(N)=O)c(F)c3)C2=S)cc1C(F)(F)F
REMARK SMILES IDX 14 1 25 2 26 3 7 4 8 5 9 6 10 7 11 8 12 9 13 10 15 11 18 12
REMARK SMILES IDX 22 13 17 14 24 15 16 16 23 17 19 18 20 19 21 20 6 23 27 24
REMARK SMILES IDX 5 25 28 26 4 27 3 28 2 29 1 30 29 31 30 32 31 33 32 34
REMARK H PARENT 20 21 20 22
ROOT
ATOM      1  N   UNL     1      -1.537  65.401   4.863  1.00  0.00    -0.303 N 
ATOM      2  C   UNL     1      -0.528  64.476   4.439  1.00  0.00     0.188 C 
ATOM      3  S   UNL     1       0.468  64.756   3.163  1.00  0.00    -0.039 S 
ATOM      4  N   UNL     1      -0.670  63.198   5.059  1.00  0.00    -0.253 N 
ATOM      5  C   UNL     1      -1.811  63.320   5.901  1.00  0.00     0.259 C 
ATOM      6  O   UNL     1      -2.232  62.396   6.649  1.00  0.00    -0.271 OA
ATOM      7  C   UNL     1      -2.410  64.691   5.810  1.00  0.00     0.127 C 
ATOM      8  C   UNL     1      -3.905  64.740   5.498  1.00  0.00     0.039 C 
ATOM      9  C   UNL     1      -4.131  65.478   6.817  1.00  0.00     0.006 C 
ATOM     10  C   UNL     1      -2.639  65.409   7.136  1.00  0.00     0.039 C 
ENDROOT
BRANCH   1  11
ATOM     11  C   UNL     1      -1.821  66.654   4.222  1.00  0.00     0.047 A 
ATOM     12  C   UNL     1      -2.387  69.126   2.989  1.00  0.00     0.075 A 
ATOM     13  C   UNL     1      -1.126  68.890   3.576  1.00  0.00     0.138 A 
ATOM     14  C   UNL     1      -3.363  68.115   3.052  1.00  0.00     0.019 A 
ATOM     15  C   UNL     1      -0.851  67.664   4.188  1.00  0.00     0.066 A 
ATOM     16  C   UNL     1      -3.082  66.891   3.665  1.00  0.00     0.027 A 
ATOM     17  F   UNL     1      -0.152  69.835   3.539  1.00  0.00    -0.206 F 
BRANCH  12  18
ATOM     18  C   UNL     1      -2.691  70.426   2.342  1.00  0.00     0.251 C 
ATOM     19  N   UNL     1      -2.663  70.572   0.920  1.00  0.00    -0.366 N 
ATOM     20  O   UNL     1      -2.976  71.429   3.051  1.00  0.00    -0.269 OA
ATOM     21  H   UNL     1      -2.300  69.816   0.300  1.00  0.00     0.159 HD
ATOM     22  H   UNL     1      -2.934  71.482   0.484  1.00  0.00     0.159 HD
ENDBRANCH  12  18
ENDBRANCH   1  11
BRANCH   4  23
ATOM     23  C   UNL     1       0.172  62.042   4.917  1.00  0.00     0.070 A 
ATOM     24  C   UNL     1       1.463  62.158   4.383  1.00  0.00     0.044 A 
ATOM     25  C   UNL     1      -0.275  60.782   5.329  1.00  0.00     0.139 A 
ATOM     26  C   UNL     1       2.287  61.026   4.249  1.00  0.00     0.094 A 
ATOM     27  N   UNL     1       0.527  59.696   5.197  1.00  0.00    -0.243 NA
ATOM     28  C   UNL     1       1.780  59.777   4.675  1.00  0.00     0.152 A 
ATOM     29  C   UNL     1       2.558  58.568   4.578  1.00  0.00     0.120 C 
ATOM     30  N   UNL     1       3.184  57.598   4.500  1.00  0.00    -0.191 NA
BRANCH  26  31
ATOM     31  C   UNL     1       3.683  61.149   3.671  1.00  0.00     0.419 C 
ATOM     32  F   UNL     1       4.658  60.913   4.624  1.00  0.00    -0.166 F 
ATOM     33  F   UNL     1       3.865  62.426   3.169  1.00  0.00    -0.166 F 
ATOM     34  F   UNL     1       3.843  60.233   2.647  1.00  0.00    -0.166 F 
ENDBRANCH  26  31
ENDBRANCH   4  23
TORSDOF 4
ENDMDL
MODEL 3
REMARK VINA RESULT:     7.376      2.506      8.517
REMARK INTER + INTRA:           9.020
REMARK INTER:                   8.267
REMARK INTRA:                   0.753
REMARK UNBOUND:                -0.081
REMARK SMILES N#Cc1ncc(N2C(=O)C3(CCC3)N(c3ccc(C(N)=O)c(F)c3)C2=S)cc1C(F)(F)F
REMARK SMILES IDX 14 1 25 2 26 3 7 4 8 5 9 6 10 7 11 8 12 9 13 10 15 11 18 12
REMARK SMILES IDX 22 13 17 14 24 15 16 16 23 17 19 18 20 19 21 20 6 23 27 24
REMARK SMILES IDX 5 25 28 26 4 27 3 28 2 29 1 30 29 31 30 32 31 33 32 34
REMARK H PARENT 20 21 20 22
ROOT
ATOM      1  N   UNL     1      -1.519  65.498   4.810  1.00  0.00    -0.303 N 
ATOM      2  C   UNL     1      -0.526  64.561   4.376  1.00  0.00     0.188 C 
ATOM      3  S   UNL     1       0.438  64.812   3.071  1.00  0.00    -0.039 S 
ATOM      4  N   UNL     1      -0.659  63.295   5.023  1.00  0.00    -0.253 N 
ATOM      5  C   UNL     1      -1.778  63.438   5.891  1.00  0.00     0.259 C 
ATOM      6  O   UNL     1      -2.184  62.530   6.666  1.00  0.00    -0.271 OA
ATOM      7  C   UNL     1      -2.372  64.809   5.790  1.00  0.00     0.127 C 
ATOM      8  C   UNL     1      -3.874  64.861   5.515  1.00  0.00     0.039 C 
ATOM      9  C   UNL     1      -4.063  65.624   6.826  1.00  0.00     0.006 C 
ATOM     10  C   UNL     1      -2.564  65.553   7.108  1.00  0.00     0.039 C 
ENDROOT
BRANCH   1  11
ATOM     11  C   UNL     1      -1.814  66.741   4.153  1.00  0.00     0.047 A 
ATOM     12  C   UNL     1      -2.382  69.171   2.840  1.00  0.00     0.075 A 
ATOM     13  C   UNL     1      -3.302  68.103   2.800  1.00  0.00     0.138 A 
ATOM     14  C   UNL     1      -1.167  68.992   3.526  1.00  0.00     0.019 A 
ATOM     15  C   UNL     1      -3.015  66.900   3.451  1.00  0.00     0.066 A 
ATOM     16  C   UNL     1      -0.885  67.787   4.175  1.00  0.00     0.027 A 
ATOM     17  F   UNL     1      -4.488  68.228   2.152  1.00  0.00    -0.206 F 
BRANCH  12  18
ATOM     18  C   UNL     1      -2.674  70.450   2.147  1.00  0.00     0.251 C 
ATOM     19  N   UNL     1      -3.002  71.633   2.880  1.00  0.00    -0.366 N 
ATOM     20  O   UNL     1      -2.639  70.505   0.888  1.00  0.00    -0.269 OA
ATOM     21  H   UNL     1      -3.180  71.607   3.908  1.00  0.00     0.159 HD
ATOM     22  H   UNL     1      -3.150  72.535   2.376  1.00  0.00     0.159 HD
ENDBRANCH  12  18
ENDBRANCH   1  11
BRANCH   4  23
ATOM     23  C   UNL     1       0.175  62.132   4.881  1.00  0.00     0.070 A 
ATOM     24  C   UNL     1       1.472  62.240   4.363  1.00  0.00     0.044 A 
ATOM     25  C   UNL     1      -0.290  60.873   5.277  1.00  0.00     0.139 A 
ATOM     26  C   UNL     1       2.287  61.101   4.228  1.00  0.00     0.094 A 
ATOM     27  N   UNL     1       0.504  59.780   5.145  1.00  0.00    -0.243 NA
ATOM     28  C   UNL     1       1.763  59.854   4.638  1.00  0.00     0.152 A 
ATOM     29  C   UNL     1       2.531  58.639   4.539  1.00  0.00     0.120 C 
ATOM     30  N   UNL     1       3.148  57.663   4.460  1.00  0.00    -0.191 NA
BRANCH  26  31
ATOM     31  C   UNL     1       3.690  61.216   3.667  1.00  0.00     0.419 C 
ATOM     32  F   UNL     1       4.653  60.995   4.637  1.00  0.00    -0.166 F 
ATOM     33  F   UNL     1       3.879  62.485   3.148  1.00  0.00    -0.166 F 
ATOM     34  F   UNL     1       3.865  60.284   2.660  1.00  0.00    -0.166 F 
ENDBRANCH  26  31
ENDBRANCH   4  23
TORSDOF 4
ENDMDL
MODEL 4
REMARK VINA RESULT:     9.127      2.181      8.665
REMARK INTER + INTRA:          11.180
REMARK INTER:                  11.483
REMARK INTRA:                  -0.303
REMARK UNBOUND:                -0.081
REMARK SMILES N#Cc1ncc(N2C(=O)C3(CCC3)N(c3ccc(C(N)=O)c(F)c3)C2=S)cc1C(F)(F)F
REMARK SMILES IDX 14 1 25 2 26 3 7 4 8 5 9 6 10 7 11 8 12 9 13 10 15 11 18 12
REMARK SMILES IDX 22 13 17 14 24 15 16 16 23 17 19 18 20 19 21 20 6 23 27 24
REMARK SMILES IDX 5 25 28 26 4 27 3 28 2 29 1 30 29 31 30 32 31 33 32 34
REMARK H PARENT 20 21 20 22
ROOT
ATOM      1  N   UNL     1      -1.295  65.147   4.797  1.00  0.00    -0.303 N 
ATOM      2  C   UNL     1      -0.266  64.220   4.433  1.00  0.00     0.188 C 
ATOM      3  S   UNL     1       0.790  64.488   3.203  1.00  0.00    -0.039 S 
ATOM      4  N   UNL     1      -0.435  62.949   5.061  1.00  0.00    -0.253 N 
ATOM      5  C   UNL     1      -1.616  63.078   5.845  1.00  0.00     0.259 C 
ATOM      6  O   UNL     1      -2.071  62.162   6.582  1.00  0.00    -0.271 OA
ATOM      7  C   UNL     1      -2.213  64.446   5.709  1.00  0.00     0.127 C 
ATOM      8  C   UNL     1      -3.691  64.488   5.324  1.00  0.00     0.039 C 
ATOM      9  C   UNL     1      -3.982  65.241   6.622  1.00  0.00     0.006 C 
ATOM     10  C   UNL     1      -2.506  65.179   7.013  1.00  0.00     0.039 C 
ENDROOT
BRANCH   1  11
ATOM     11  C   UNL     1      -1.551  66.392   4.128  1.00  0.00     0.047 A 
ATOM     12  C   UNL     1      -2.065  68.846   2.839  1.00  0.00     0.075 A 
ATOM     13  C   UNL     1      -0.937  68.698   3.672  1.00  0.00     0.138 A 
ATOM     14  C   UNL     1      -2.940  67.756   2.683  1.00  0.00     0.019 A 
ATOM     15  C   UNL     1      -0.687  67.480   4.311  1.00  0.00     0.066 A 
ATOM     16  C   UNL     1      -2.686  66.541   3.324  1.00  0.00     0.027 A 
ATOM     17  F   UNL     1      -0.063  69.721   3.852  1.00  0.00    -0.206 F 
BRANCH  12  18
ATOM     18  C   UNL     1      -2.343  70.137   2.161  1.00  0.00     0.251 C 
ATOM     19  N   UNL     1      -2.872  71.254   2.880  1.00  0.00    -0.366 N 
ATOM     20  O   UNL     1      -2.115  70.260   0.928  1.00  0.00    -0.269 OA
ATOM     21  H   UNL     1      -3.207  71.161   3.864  1.00  0.00     0.159 HD
ATOM     22  H   UNL     1      -3.008  72.169   2.396  1.00  0.00     0.159 HD
ENDBRANCH  12  18
ENDBRANCH   1  11
BRANCH   4  23
ATOM     23  C   UNL     1       0.415  61.794   4.973  1.00  0.00     0.070 A 
ATOM     24  C   UNL     1       0.541  61.086   3.771  1.00  0.00     0.044 A 
ATOM     25  C   UNL     1       1.150  61.367   6.085  1.00  0.00     0.139 A 
ATOM     26  C   UNL     1       1.377  59.958   3.686  1.00  0.00     0.094 A 
ATOM     27  N   UNL     1       1.956  60.279   5.994  1.00  0.00    -0.243 NA
ATOM     28  C   UNL     1       2.090  59.569   4.843  1.00  0.00     0.152 A 
ATOM     29  C   UNL     1       2.972  58.429   4.844  1.00  0.00     0.120 C 
ATOM     30  N   UNL     1       3.680  57.514   4.844  1.00  0.00    -0.191 NA
BRANCH  26  31
ATOM     31  C   UNL     1       1.513  59.191   2.386  1.00  0.00     0.419 C 
ATOM     32  F   UNL     1       1.039  57.895   2.501  1.00  0.00    -0.166 F 
ATOM     33  F   UNL     1       2.845  59.136   2.017  1.00  0.00    -0.166 F 
ATOM     34  F   UNL     1       0.793  59.831   1.393  1.00  0.00    -0.166 F 
ENDBRANCH  26  31
ENDBRANCH   4  23
TORSDOF 4
ENDMDL
MODEL 5
REMARK VINA RESULT:     9.170      3.095      4.103
REMARK INTER + INTRA:          11.234
REMARK INTER:                   8.462
REMARK INTRA:                   2.772
REMARK UNBOUND:                -0.081
REMARK SMILES N#Cc1ncc(N2C(=O)C3(CCC3)N(c3ccc(C(N)=O)c(F)c3)C2=S)cc1C(F)(F)F
REMARK SMILES IDX 14 1 25 2 26 3 7 4 8 5 9 6 10 7 11 8 12 9 13 10 15 11 18 12
REMARK SMILES IDX 22 13 17 14 24 15 16 16 23 17 19 18 20 19 21 20 6 23 27 24
REMARK SMILES IDX 5 25 28 26 4 27 3 28 2 29 1 30 29 31 30 32 31 33 32 34
REMARK H PARENT 20 21 20 22
ROOT
ATOM      1  N   UNL     1       1.599  63.345   4.074  1.00  0.00    -0.303 N 
ATOM      2  C   UNL     1       0.296  63.931   4.179  1.00  0.00     0.188 C 
ATOM      3  S   UNL     1      -1.073  63.046   4.385  1.00  0.00    -0.039 S 
ATOM      4  N   UNL     1       0.292  65.311   3.814  1.00  0.00    -0.253 N 
ATOM      5  C   UNL     1       1.640  65.604   3.462  1.00  0.00     0.259 C 
ATOM      6  O   UNL     1       2.040  66.749   3.117  1.00  0.00    -0.271 OA
ATOM      7  C   UNL     1       2.512  64.393   3.595  1.00  0.00     0.127 C 
ATOM      8  C   UNL     1       3.343  64.037   2.363  1.00  0.00     0.039 C 
ATOM      9  C   UNL     1       4.610  64.195   3.202  1.00  0.00     0.006 C 
ATOM     10  C   UNL     1       3.778  64.570   4.427  1.00  0.00     0.039 C 
ENDROOT
BRANCH   1  11
ATOM     11  C   UNL     1       1.867  61.934   4.104  1.00  0.00     0.047 A 
ATOM     12  C   UNL     1       2.396  59.166   4.193  1.00  0.00     0.075 A 
ATOM     13  C   UNL     1       1.083  59.650   4.364  1.00  0.00     0.138 A 
ATOM     14  C   UNL     1       3.439  60.091   4.002  1.00  0.00     0.019 A 
ATOM     15  C   UNL     1       0.826  61.023   4.321  1.00  0.00     0.066 A 
ATOM     16  C   UNL     1       3.176  61.462   3.961  1.00  0.00     0.027 A 
ATOM     17  F   UNL     1       0.043  58.796   4.549  1.00  0.00    -0.206 F 
BRANCH  12  18
ATOM     18  C   UNL     1       2.681  57.710   4.243  1.00  0.00     0.251 C 
ATOM     19  N   UNL     1       2.159  56.818   3.255  1.00  0.00    -0.366 N 
ATOM     20  O   UNL     1       3.392  57.241   5.172  1.00  0.00    -0.269 OA
ATOM     21  H   UNL     1       1.456  57.133   2.552  1.00  0.00     0.159 HD
ATOM     22  H   UNL     1       2.416  55.806   3.278  1.00  0.00     0.159 HD
ENDBRANCH  12  18
ENDBRANCH   1  11
BRANCH   4  23
ATOM     23  C   UNL     1      -0.809  66.234   3.838  1.00  0.00     0.070 A 
ATOM     24  C   UNL     1      -1.816  66.123   4.806  1.00  0.00     0.044 A 
ATOM     25  C   UNL     1      -0.885  67.274   2.905  1.00  0.00     0.139 A 
ATOM     26  C   UNL     1      -2.892  67.030   4.829  1.00  0.00     0.094 A 
ATOM     27  N   UNL     1      -1.924  68.145   2.936  1.00  0.00    -0.243 NA
ATOM     28  C   UNL     1      -2.919  68.056   3.858  1.00  0.00     0.152 A 
ATOM     29  C   UNL     1      -3.981  69.030   3.813  1.00  0.00     0.120 C 
ATOM     30  N   UNL     1      -4.833  69.812   3.777  1.00  0.00    -0.191 NA
BRANCH  26  31
ATOM     31  C   UNL     1      -3.982  66.910   5.875  1.00  0.00     0.419 C 
ATOM     32  F   UNL     1      -4.948  67.891   5.727  1.00  0.00    -0.166 F 
ATOM     33  F   UNL     1      -3.429  67.031   7.138  1.00  0.00    -0.166 F 
ATOM     34  F   UNL     1      -4.595  65.675   5.766  1.00  0.00    -0.166 F 
ENDBRANCH  26  31
ENDBRANCH   4  23
TORSDOF 4
ENDMDL
