MODEL 1
REMARK VINA RESULT:   -11.286      0.000      0.000
REMARK INTER + INTRA:         -11.616
REMARK INTER:                 -11.616
REMARK INTRA:                   0.000
REMARK UNBOUND:                 0.000
REMARK SMILES C[C@]12CCC(=O)C[C@@H]1CC[C@@H]1[C@@H]2CC[C@]2(C)[C@@H](O)CC[C@@H]12
REMARK SMILES IDX 1 1 2 2 3 3 4 4 5 5 6 6 7 7 8 8 9 9 10 10 11 11 12 12 13 13
REMARK SMILES IDX 14 14 15 15 21 16 20 17 19 18 17 19 16 20 18 21
REMARK H PARENT 18 22
ROOT
ATOM      1  C   UNL     1       0.881  62.609   5.933  1.00  0.00     0.012 C 
ATOM      2  C   UNL     1       0.646  62.413   4.404  1.00  0.00    -0.026 C 
ATOM      3  C   UNL     1      -0.101  61.060   4.181  1.00  0.00     0.015 C 
ATOM      4  C   UNL     1       0.730  59.822   4.562  1.00  0.00     0.076 C 
ATOM      5  C   UNL     1       2.112  59.882   3.975  1.00  0.00     0.133 C 
ATOM      6  O   UNL     1       2.635  58.866   3.543  1.00  0.00    -0.300 OA
ATOM      7  C   UNL     1       2.892  61.165   4.018  1.00  0.00     0.079 C 
ATOM      8  C   UNL     1       1.995  62.345   3.603  1.00  0.00     0.002 C 
ATOM      9  C   UNL     1       2.773  63.673   3.649  1.00  0.00     0.005 C 
ATOM     10  C   UNL     1       1.930  64.815   3.073  1.00  0.00     0.004 C 
ATOM     11  C   UNL     1       0.590  64.958   3.822  1.00  0.00    -0.004 C 
ATOM     12  C   UNL     1      -0.201  63.602   3.803  1.00  0.00    -0.001 C 
ATOM     13  C   UNL     1      -1.635  63.748   4.408  1.00  0.00     0.005 C 
ATOM     14  C   UNL     1      -2.427  64.942   3.820  1.00  0.00     0.010 C 
ATOM     15  C   UNL     1      -1.616  66.252   3.914  1.00  0.00    -0.003 C 
ATOM     16  C   UNL     1      -0.294  66.040   3.167  1.00  0.00     0.001 C 
ATOM     17  C   UNL     1       0.267  67.442   2.972  1.00  0.00     0.007 C 
ATOM     18  C   UNL     1      -0.983  68.320   2.785  1.00  0.00     0.032 C 
ATOM     19  C   UNL     1      -2.203  67.430   3.107  1.00  0.00     0.120 C 
ATOM     20  C   UNL     1      -1.444  66.674   5.409  1.00  0.00     0.014 C 
ENDROOT
BRANCH  19  21
ATOM     21  O   UNL     1      -3.174  68.153   3.819  1.00  0.00    -0.393 OA
ATOM     22  H   UNL     1      -3.920  68.318   3.185  1.00  0.00     0.210 HD
ENDBRANCH  19  21
TORSDOF 1
ENDMDL
MODEL 2
REMARK VINA RESULT:    -9.326      1.081      6.663
REMARK INTER + INTRA:          -9.598
REMARK INTER:                  -9.598
REMARK INTRA:                   0.000
REMARK UNBOUND:                 0.000
REMARK SMILES C[C@]12CCC(=O)C[C@@H]1CC[C@@H]1[C@@H]2CC[C@]2(C)[C@@H](O)CC[C@@H]12
REMARK SMILES IDX 1 1 2 2 3 3 4 4 5 5 6 6 7 7 8 8 9 9 10 10 11 11 12 12 13 13
REMARK SMILES IDX 14 14 15 15 21 16 20 17 19 18 17 19 16 20 18 21
REMARK H PARENT 18 22
ROOT
ATOM      1  C   UNL     1       0.555  66.138   4.631  1.00  0.00     0.012 C 
ATOM      2  C   UNL     1      -0.524  65.522   3.690  1.00  0.00    -0.026 C 
ATOM      3  C   UNL     1      -0.562  66.346   2.363  1.00  0.00     0.015 C 
ATOM      4  C   UNL     1      -1.051  67.794   2.546  1.00  0.00     0.076 C 
ATOM      5  C   UNL     1      -2.313  67.853   3.359  1.00  0.00     0.133 C 
ATOM      6  O   UNL     1      -3.191  68.648   3.063  1.00  0.00    -0.300 OA
ATOM      7  C   UNL     1      -2.450  67.012   4.597  1.00  0.00     0.079 C 
ATOM      8  C   UNL     1      -1.961  65.579   4.322  1.00  0.00     0.002 C 
ATOM      9  C   UNL     1      -2.083  64.702   5.582  1.00  0.00     0.005 C 
ATOM     10  C   UNL     1      -1.759  63.241   5.258  1.00  0.00     0.004 C 
ATOM     11  C   UNL     1      -0.351  63.099   4.648  1.00  0.00    -0.004 C 
ATOM     12  C   UNL     1      -0.206  64.008   3.376  1.00  0.00    -0.001 C 
ATOM     13  C   UNL     1       1.148  63.771   2.632  1.00  0.00     0.005 C 
ATOM     14  C   UNL     1       1.445  62.274   2.368  1.00  0.00     0.010 C 
ATOM     15  C   UNL     1       1.335  61.443   3.665  1.00  0.00    -0.003 C 
ATOM     16  C   UNL     1      -0.077  61.640   4.229  1.00  0.00     0.001 C 
ATOM     17  C   UNL     1      -0.238  60.527   5.257  1.00  0.00     0.007 C 
ATOM     18  C   UNL     1       0.567  59.356   4.667  1.00  0.00     0.032 C 
ATOM     19  C   UNL     1       1.338  59.914   3.451  1.00  0.00     0.120 C 
ATOM     20  C   UNL     1       2.478  61.836   4.656  1.00  0.00     0.014 C 
ENDROOT
BRANCH  19  21
ATOM     21  O   UNL     1       2.631  59.371   3.387  1.00  0.00    -0.393 OA
ATOM     22  H   UNL     1       2.548  58.419   3.658  1.00  0.00     0.210 HD
ENDBRANCH  19  21
TORSDOF 1
ENDMDL
MODEL 3
REMARK VINA RESULT:    -9.302      1.510      2.910
REMARK INTER + INTRA:          -9.574
REMARK INTER:                  -9.574
REMARK INTRA:                   0.000
REMARK UNBOUND:                 0.000
REMARK SMILES C[C@]12CCC(=O)C[C@@H]1CC[C@@H]1[C@@H]2CC[C@]2(C)[C@@H](O)CC[C@@H]12
REMARK SMILES IDX 1 1 2 2 3 3 4 4 5 5 6 6 7 7 8 8 9 9 10 10 11 11 12 12 13 13
REMARK SMILES IDX 14 14 15 15 21 16 20 17 19 18 17 19 16 20 18 21
REMARK H PARENT 18 22
ROOT
ATOM      1  C   UNL     1       0.645  61.555   2.393  1.00  0.00     0.012 C 
ATOM      2  C   UNL     1       1.362  61.836   3.749  1.00  0.00    -0.026 C 
ATOM      3  C   UNL     1       2.844  61.355   3.643  1.00  0.00     0.015 C 
ATOM      4  C   UNL     1       2.992  59.831   3.485  1.00  0.00     0.076 C 
ATOM      5  C   UNL     1       2.160  59.089   4.492  1.00  0.00     0.133 C 
ATOM      6  O   UNL     1       2.598  58.075   5.015  1.00  0.00    -0.300 OA
ATOM      7  C   UNL     1       0.752  59.529   4.776  1.00  0.00     0.079 C 
ATOM      8  C   UNL     1       0.697  61.058   4.940  1.00  0.00     0.002 C 
ATOM      9  C   UNL     1      -0.741  61.532   5.222  1.00  0.00     0.005 C 
ATOM     10  C   UNL     1      -0.763  63.027   5.554  1.00  0.00     0.004 C 
ATOM     11  C   UNL     1      -0.141  63.864   4.419  1.00  0.00    -0.004 C 
ATOM     12  C   UNL     1       1.318  63.373   4.106  1.00  0.00    -0.001 C 
ATOM     13  C   UNL     1       2.043  64.299   3.076  1.00  0.00     0.005 C 
ATOM     14  C   UNL     1       1.954  65.803   3.438  1.00  0.00     0.010 C 
ATOM     15  C   UNL     1       0.492  66.233   3.686  1.00  0.00    -0.003 C 
ATOM     16  C   UNL     1      -0.073  65.355   4.809  1.00  0.00     0.001 C 
ATOM     17  C   UNL     1      -1.343  66.068   5.252  1.00  0.00     0.007 C 
ATOM     18  C   UNL     1      -1.016  67.561   5.070  1.00  0.00     0.032 C 
ATOM     19  C   UNL     1       0.332  67.631   4.320  1.00  0.00     0.120 C 
ATOM     20  C   UNL     1      -0.323  66.166   2.353  1.00  0.00     0.014 C 
ENDROOT
BRANCH  19  21
ATOM     21  O   UNL     1       0.322  68.667   3.372  1.00  0.00    -0.393 OA
ATOM     22  H   UNL     1      -0.468  69.231   3.582  1.00  0.00     0.210 HD
ENDBRANCH  19  21
TORSDOF 1
ENDMDL
