MODEL 1
REMARK VINA RESULT:     8.807      0.000      0.000
REMARK INTER + INTRA:          11.022
REMARK INTER:                  10.866
REMARK INTRA:                   0.156
REMARK UNBOUND:                 0.156
REMARK SMILES CNC(=O)c1ccc(N2C(=S)N(c3ccc(C#N)c(C(F)(F)F)c3)C(=O)C2(C)C)cc1F
REMARK SMILES IDX 28 1 27 2 25 3 26 4 12 5 10 6 11 7 9 8 29 9 8 10 30 11 7 12
REMARK SMILES IDX 31 13 6 14 5 15 32 16 3 17 4 18 2 19 1 20 13 22 24 23 14 24
REMARK SMILES IDX 19 25 15 26 16 27 17 28 18 29 20 30 21 31 22 32 23 33
REMARK H PARENT 2 21
ROOT
ATOM      1  C   UNL     1      -2.608  62.136   6.364  1.00  0.00     0.046 C 
ATOM      2  C   UNL     1      -1.409  63.088   6.264  1.00  0.00     0.121 C 
ATOM      3  C   UNL     1      -1.872  64.496   6.005  1.00  0.00     0.259 C 
ATOM      4  O   UNL     1      -2.639  65.146   6.766  1.00  0.00    -0.271 OA
ATOM      5  N   UNL     1      -1.369  65.012   4.776  1.00  0.00    -0.255 N 
ATOM      6  C   UNL     1      -0.601  63.950   4.224  1.00  0.00     0.188 C 
ATOM      7  S   UNL     1       0.415  64.133   2.947  1.00  0.00    -0.039 S 
ATOM      8  N   UNL     1      -0.605  62.795   5.067  1.00  0.00    -0.303 N 
ATOM      9  C   UNL     1      -0.545  63.039   7.534  1.00  0.00     0.046 C 
ENDROOT
BRANCH   8  10
ATOM     10  C   UNL     1       0.243  61.649   4.901  1.00  0.00     0.047 A 
ATOM     11  C   UNL     1       1.612  61.818   4.663  1.00  0.00     0.066 A 
ATOM     12  C   UNL     1      -0.292  60.359   4.982  1.00  0.00     0.027 A 
ATOM     13  C   UNL     1       2.446  60.705   4.505  1.00  0.00     0.138 A 
ATOM     14  C   UNL     1       0.535  59.244   4.826  1.00  0.00     0.019 A 
ATOM     15  C   UNL     1       1.909  59.403   4.573  1.00  0.00     0.075 A 
ATOM     16  F   UNL     1       3.777  60.907   4.338  1.00  0.00    -0.206 F 
BRANCH  15  17
ATOM     17  C   UNL     1       2.764  58.205   4.408  1.00  0.00     0.253 C 
ATOM     18  O   UNL     1       3.034  57.795   3.246  1.00  0.00    -0.269 OA
ATOM     19  N   UNL     1       3.315  57.527   5.546  1.00  0.00    -0.355 N 
ATOM     20  C   UNL     1       4.036  56.267   5.411  1.00  0.00     0.143 C 
ATOM     21  H   UNL     1       3.249  57.961   6.494  1.00  0.00     0.163 HD
ENDBRANCH  15  17
ENDBRANCH   8  10
BRANCH   5  22
ATOM     22  C   UNL     1      -1.639  66.306   4.210  1.00  0.00     0.052 A 
ATOM     23  C   UNL     1      -0.586  67.199   3.959  1.00  0.00     0.041 A 
ATOM     24  C   UNL     1      -2.953  66.693   3.921  1.00  0.00     0.028 A 
ATOM     25  C   UNL     1      -0.833  68.474   3.412  1.00  0.00     0.075 A 
ATOM     26  C   UNL     1      -3.215  67.951   3.378  1.00  0.00     0.022 A 
ATOM     27  C   UNL     1      -2.167  68.845   3.121  1.00  0.00     0.064 A 
ATOM     28  C   UNL     1      -2.488  70.135   2.558  1.00  0.00     0.100 C 
ATOM     29  N   UNL     1      -2.746  71.169   2.106  1.00  0.00    -0.192 NA
BRANCH  25  30
ATOM     30  C   UNL     1       0.316  69.426   3.139  1.00  0.00     0.417 C 
ATOM     31  F   UNL     1       0.257  69.860   1.828  1.00  0.00    -0.166 F 
ATOM     32  F   UNL     1       0.276  70.536   3.966  1.00  0.00    -0.166 F 
ATOM     33  F   UNL     1       1.518  68.773   3.347  1.00  0.00    -0.166 F 
ENDBRANCH  25  30
ENDBRANCH   5  22
TORSDOF 4
ENDMDL
MODEL 2
REMARK VINA RESULT:     9.279      2.899      3.773
REMARK INTER + INTRA:          11.605
REMARK INTER:                   9.084
REMARK INTRA:                   2.521
REMARK UNBOUND:                 0.156
REMARK SMILES CNC(=O)c1ccc(N2C(=S)N(c3ccc(C#N)c(C(F)(F)F)c3)C(=O)C2(C)C)cc1F
REMARK SMILES IDX 28 1 27 2 25 3 26 4 12 5 10 6 11 7 9 8 29 9 8 10 30 11 7 12
REMARK SMILES IDX 31 13 6 14 5 15 32 16 3 17 4 18 2 19 1 20 13 22 24 23 14 24
REMARK SMILES IDX 19 25 15 26 16 27 17 28 18 29 20 30 21 31 22 32 23 33
REMARK H PARENT 2 21
ROOT
ATOM      1  C   UNL     1       3.890  64.560   4.412  1.00  0.00     0.046 C 
ATOM      2  C   UNL     1       2.733  64.247   3.454  1.00  0.00     0.121 C 
ATOM      3  C   UNL     1       1.852  65.454   3.277  1.00  0.00     0.259 C 
ATOM      4  O   UNL     1       2.246  66.565   2.832  1.00  0.00    -0.271 OA
ATOM      5  N   UNL     1       0.514  65.212   3.701  1.00  0.00    -0.255 N 
ATOM      6  C   UNL     1       0.518  63.868   4.169  1.00  0.00     0.188 C 
ATOM      7  S   UNL     1      -0.846  63.020   4.507  1.00  0.00    -0.039 S 
ATOM      8  N   UNL     1       1.810  63.267   4.048  1.00  0.00    -0.303 N 
ATOM      9  C   UNL     1       3.248  63.762   2.090  1.00  0.00     0.046 C 
ENDROOT
BRANCH   8  10
ATOM     10  C   UNL     1       2.090  61.870   4.226  1.00  0.00     0.047 A 
ATOM     11  C   UNL     1       1.085  61.004   4.672  1.00  0.00     0.066 A 
ATOM     12  C   UNL     1       3.365  61.366   3.948  1.00  0.00     0.027 A 
ATOM     13  C   UNL     1       1.349  59.641   4.844  1.00  0.00     0.138 A 
ATOM     14  C   UNL     1       3.635  60.006   4.116  1.00  0.00     0.019 A 
ATOM     15  C   UNL     1       2.636  59.130   4.577  1.00  0.00     0.075 A 
ATOM     16  F   UNL     1       0.335  58.822   5.218  1.00  0.00    -0.206 F 
BRANCH  15  17
ATOM     17  C   UNL     1       2.949  57.693   4.750  1.00  0.00     0.253 C 
ATOM     18  O   UNL     1       2.645  56.881   3.835  1.00  0.00    -0.269 OA
ATOM     19  N   UNL     1       3.622  57.220   5.925  1.00  0.00    -0.355 N 
ATOM     20  C   UNL     1       3.808  55.796   6.179  1.00  0.00     0.143 C 
ATOM     21  H   UNL     1       4.038  57.901   6.599  1.00  0.00     0.163 HD
ENDBRANCH  15  17
ENDBRANCH   8  10
BRANCH   5  22
ATOM     22  C   UNL     1      -0.574  66.152   3.700  1.00  0.00     0.052 A 
ATOM     23  C   UNL     1      -1.596  66.050   4.656  1.00  0.00     0.041 A 
ATOM     24  C   UNL     1      -0.634  67.165   2.735  1.00  0.00     0.028 A 
ATOM     25  C   UNL     1      -2.674  66.957   4.664  1.00  0.00     0.075 A 
ATOM     26  C   UNL     1      -1.693  68.073   2.730  1.00  0.00     0.022 A 
ATOM     27  C   UNL     1      -2.713  67.979   3.685  1.00  0.00     0.064 A 
ATOM     28  C   UNL     1      -3.788  68.941   3.639  1.00  0.00     0.100 C 
ATOM     29  N   UNL     1      -4.649  69.714   3.602  1.00  0.00    -0.192 NA
BRANCH  25  30
ATOM     30  C   UNL     1      -3.767  66.838   5.709  1.00  0.00     0.417 C 
ATOM     31  F   UNL     1      -3.226  67.018   6.968  1.00  0.00    -0.166 F 
ATOM     32  F   UNL     1      -4.762  67.783   5.526  1.00  0.00    -0.166 F 
ATOM     33  F   UNL     1      -4.342  65.582   5.638  1.00  0.00    -0.166 F 
ENDBRANCH  25  30
ENDBRANCH   5  22
TORSDOF 4
ENDMDL
MODEL 3
REMARK VINA RESULT:    10.017      2.274      2.977
REMARK INTER + INTRA:          12.515
REMARK INTER:                  10.816
REMARK INTRA:                   1.700
REMARK UNBOUND:                 0.156
REMARK SMILES CNC(=O)c1ccc(N2C(=S)N(c3ccc(C#N)c(C(F)(F)F)c3)C(=O)C2(C)C)cc1F
REMARK SMILES IDX 28 1 27 2 25 3 26 4 12 5 10 6 11 7 9 8 29 9 8 10 30 11 7 12
REMARK SMILES IDX 31 13 6 14 5 15 32 16 3 17 4 18 2 19 1 20 13 22 24 23 14 24
REMARK SMILES IDX 19 25 15 26 16 27 17 28 18 29 20 30 21 31 22 32 23 33
REMARK H PARENT 2 21
ROOT
ATOM      1  C   UNL     1       2.861  64.744   5.427  1.00  0.00     0.046 C 
ATOM      2  C   UNL     1       2.282  64.435   4.040  1.00  0.00     0.121 C 
ATOM      3  C   UNL     1       1.366  65.542   3.591  1.00  0.00     0.259 C 
ATOM      4  O   UNL     1       1.718  66.744   3.448  1.00  0.00    -0.271 OA
ATOM      5  N   UNL     1       0.035  65.085   3.371  1.00  0.00    -0.255 N 
ATOM      6  C   UNL     1       0.069  63.699   3.689  1.00  0.00     0.188 C 
ATOM      7  S   UNL     1      -1.148  62.656   3.333  1.00  0.00    -0.039 S 
ATOM      8  N   UNL     1       1.374  63.278   4.096  1.00  0.00    -0.303 N 
ATOM      9  C   UNL     1       3.394  64.212   3.003  1.00  0.00     0.046 C 
ENDROOT
BRANCH   8  10
ATOM     10  C   UNL     1       1.783  61.914   4.270  1.00  0.00     0.047 A 
ATOM     11  C   UNL     1       0.882  60.969   4.774  1.00  0.00     0.066 A 
ATOM     12  C   UNL     1       3.082  61.520   3.931  1.00  0.00     0.027 A 
ATOM     13  C   UNL     1       1.273  59.636   4.942  1.00  0.00     0.138 A 
ATOM     14  C   UNL     1       3.479  60.190   4.095  1.00  0.00     0.019 A 
ATOM     15  C   UNL     1       2.585  59.236   4.614  1.00  0.00     0.075 A 
ATOM     16  F   UNL     1       0.355  58.736   5.374  1.00  0.00    -0.206 F 
BRANCH  15  17
ATOM     17  C   UNL     1       3.031  57.834   4.781  1.00  0.00     0.253 C 
ATOM     18  O   UNL     1       3.000  57.054   3.791  1.00  0.00    -0.269 OA
ATOM     19  N   UNL     1       3.529  57.363   6.042  1.00  0.00    -0.355 N 
ATOM     20  C   UNL     1       3.835  55.955   6.264  1.00  0.00     0.143 C 
ATOM     21  H   UNL     1       3.729  58.040   6.811  1.00  0.00     0.163 HD
ENDBRANCH  15  17
ENDBRANCH   8  10
BRANCH   5  22
ATOM     22  C   UNL     1      -1.093  65.881   2.968  1.00  0.00     0.052 A 
ATOM     23  C   UNL     1      -1.061  67.276   3.114  1.00  0.00     0.041 A 
ATOM     24  C   UNL     1      -2.240  65.271   2.445  1.00  0.00     0.028 A 
ATOM     25  C   UNL     1      -2.161  68.070   2.733  1.00  0.00     0.075 A 
ATOM     26  C   UNL     1      -3.337  66.041   2.062  1.00  0.00     0.022 A 
ATOM     27  C   UNL     1      -3.308  67.435   2.200  1.00  0.00     0.064 A 
ATOM     28  C   UNL     1      -4.468  68.190   1.788  1.00  0.00     0.100 C 
ATOM     29  N   UNL     1      -5.398  68.794   1.458  1.00  0.00    -0.192 NA
BRANCH  25  30
ATOM     30  C   UNL     1      -2.108  69.577   2.890  1.00  0.00     0.417 C 
ATOM     31  F   UNL     1      -2.097  70.173   1.642  1.00  0.00    -0.166 F 
ATOM     32  F   UNL     1      -3.198  70.063   3.591  1.00  0.00    -0.166 F 
ATOM     33  F   UNL     1      -0.958  69.933   3.572  1.00  0.00    -0.166 F 
ENDBRANCH  25  30
ENDBRANCH   5  22
TORSDOF 4
ENDMDL
MODEL 4
REMARK VINA RESULT:    10.226      1.709      2.163
REMARK INTER + INTRA:          12.773
REMARK INTER:                  12.289
REMARK INTRA:                   0.484
REMARK UNBOUND:                 0.156
REMARK SMILES CNC(=O)c1ccc(N2C(=S)N(c3ccc(C#N)c(C(F)(F)F)c3)C(=O)C2(C)C)cc1F
REMARK SMILES IDX 28 1 27 2 25 3 26 4 12 5 10 6 11 7 9 8 29 9 8 10 30 11 7 12
REMARK SMILES IDX 31 13 6 14 5 15 32 16 3 17 4 18 2 19 1 20 13 22 24 23 14 24
REMARK SMILES IDX 19 25 15 26 16 27 17 28 18 29 20 30 21 31 22 32 23 33
REMARK H PARENT 2 21
ROOT
ATOM      1  C   UNL     1      -1.916  62.584   6.615  1.00  0.00     0.046 C 
ATOM      2  C   UNL     1      -0.720  63.431   6.163  1.00  0.00     0.121 C 
ATOM      3  C   UNL     1      -1.171  64.805   5.746  1.00  0.00     0.259 C 
ATOM      4  O   UNL     1      -1.775  65.615   6.500  1.00  0.00    -0.271 OA
ATOM      5  N   UNL     1      -0.866  65.084   4.384  1.00  0.00    -0.255 N 
ATOM      6  C   UNL     1      -0.239  63.901   3.902  1.00  0.00     0.188 C 
ATOM      7  S   UNL     1       0.552  63.812   2.466  1.00  0.00    -0.039 S 
ATOM      8  N   UNL     1      -0.140  62.900   4.919  1.00  0.00    -0.303 N 
ATOM      9  C   UNL     1       0.345  63.534   7.266  1.00  0.00     0.046 C 
ENDROOT
BRANCH   8  10
ATOM     10  C   UNL     1       0.629  61.692   4.815  1.00  0.00     0.047 A 
ATOM     11  C   UNL     1       1.991  61.751   4.498  1.00  0.00     0.066 A 
ATOM     12  C   UNL     1       0.022  60.451   5.035  1.00  0.00     0.027 A 
ATOM     13  C   UNL     1       2.747  60.578   4.399  1.00  0.00     0.138 A 
ATOM     14  C   UNL     1       0.772  59.275   4.939  1.00  0.00     0.019 A 
ATOM     15  C   UNL     1       2.138  59.324   4.608  1.00  0.00     0.075 A 
ATOM     16  F   UNL     1       4.077  60.679   4.152  1.00  0.00    -0.206 F 
BRANCH  15  17
ATOM     17  C   UNL     1       2.909  58.064   4.509  1.00  0.00     0.253 C 
ATOM     18  O   UNL     1       3.153  57.577   3.371  1.00  0.00    -0.269 OA
ATOM     19  N   UNL     1       3.411  57.410   5.683  1.00  0.00    -0.355 N 
ATOM     20  C   UNL     1       4.044  56.098   5.617  1.00  0.00     0.143 C 
ATOM     21  H   UNL     1       3.372  57.895   6.607  1.00  0.00     0.163 HD
ENDBRANCH  15  17
ENDBRANCH   8  10
BRANCH   5  22
ATOM     22  C   UNL     1      -1.183  66.283   3.657  1.00  0.00     0.052 A 
ATOM     23  C   UNL     1      -2.409  66.933   3.868  1.00  0.00     0.041 A 
ATOM     24  C   UNL     1      -0.281  66.804   2.721  1.00  0.00     0.028 A 
ATOM     25  C   UNL     1      -2.740  68.105   3.159  1.00  0.00     0.075 A 
ATOM     26  C   UNL     1      -0.592  67.964   2.011  1.00  0.00     0.022 A 
ATOM     27  C   UNL     1      -1.811  68.620   2.222  1.00  0.00     0.064 A 
ATOM     28  C   UNL     1      -2.087  69.817   1.464  1.00  0.00     0.100 C 
ATOM     29  N   UNL     1      -2.307  70.777   0.856  1.00  0.00    -0.192 NA
BRANCH  25  30
ATOM     30  C   UNL     1      -4.065  68.800   3.403  1.00  0.00     0.417 C 
ATOM     31  F   UNL     1      -4.675  68.255   4.518  1.00  0.00    -0.166 F 
ATOM     32  F   UNL     1      -3.906  70.158   3.616  1.00  0.00    -0.166 F 
ATOM     33  F   UNL     1      -4.889  68.625   2.305  1.00  0.00    -0.166 F 
ENDBRANCH  25  30
ENDBRANCH   5  22
TORSDOF 4
ENDMDL
MODEL 5
REMARK VINA RESULT:    11.478      2.811      3.654
REMARK INTER + INTRA:          14.319
REMARK INTER:                  12.453
REMARK INTRA:                   1.865
REMARK UNBOUND:                 0.156
REMARK SMILES CNC(=O)c1ccc(N2C(=S)N(c3ccc(C#N)c(C(F)(F)F)c3)C(=O)C2(C)C)cc1F
REMARK SMILES IDX 28 1 27 2 25 3 26 4 12 5 10 6 11 7 9 8 29 9 8 10 30 11 7 12
REMARK SMILES IDX 31 13 6 14 5 15 32 16 3 17 4 18 2 19 1 20 13 22 24 23 14 24
REMARK SMILES IDX 19 25 15 26 16 27 17 28 18 29 20 30 21 31 22 32 23 33
REMARK H PARENT 2 21
ROOT
ATOM      1  C   UNL     1       4.081  64.466   4.734  1.00  0.00     0.046 C 
ATOM      2  C   UNL     1       3.019  64.212   3.656  1.00  0.00     0.121 C 
ATOM      3  C   UNL     1       2.199  65.451   3.417  1.00  0.00     0.259 C 
ATOM      4  O   UNL     1       2.673  66.557   3.039  1.00  0.00    -0.271 OA
ATOM      5  N   UNL     1       0.818  65.247   3.698  1.00  0.00    -0.255 N 
ATOM      6  C   UNL     1       0.732  63.895   4.134  1.00  0.00     0.188 C 
ATOM      7  S   UNL     1      -0.687  63.088   4.312  1.00  0.00    -0.039 S 
ATOM      8  N   UNL     1       2.009  63.253   4.131  1.00  0.00    -0.303 N 
ATOM      9  C   UNL     1       3.655  63.735   2.341  1.00  0.00     0.046 C 
ENDROOT
BRANCH   8  10
ATOM     10  C   UNL     1       2.224  61.844   4.305  1.00  0.00     0.047 A 
ATOM     11  C   UNL     1       1.187  61.028   4.772  1.00  0.00     0.066 A 
ATOM     12  C   UNL     1       3.468  61.279   4.004  1.00  0.00     0.027 A 
ATOM     13  C   UNL     1       1.388  59.653   4.940  1.00  0.00     0.138 A 
ATOM     14  C   UNL     1       3.675  59.907   4.169  1.00  0.00     0.019 A 
ATOM     15  C   UNL     1       2.644  59.081   4.650  1.00  0.00     0.075 A 
ATOM     16  F   UNL     1       0.342  58.885   5.334  1.00  0.00    -0.206 F 
BRANCH  15  17
ATOM     17  C   UNL     1       2.890  57.631   4.819  1.00  0.00     0.253 C 
ATOM     18  O   UNL     1       2.489  56.829   3.931  1.00  0.00    -0.269 OA
ATOM     19  N   UNL     1       3.607  57.130   5.956  1.00  0.00    -0.355 N 
ATOM     20  C   UNL     1       3.733  55.700   6.212  1.00  0.00     0.143 C 
ATOM     21  H   UNL     1       4.098  57.793   6.596  1.00  0.00     0.163 HD
ENDBRANCH  15  17
ENDBRANCH   8  10
BRANCH   5  22
ATOM     22  C   UNL     1      -0.233  66.223   3.607  1.00  0.00     0.052 A 
ATOM     23  C   UNL     1      -1.266  66.063   2.671  1.00  0.00     0.041 A 
ATOM     24  C   UNL     1      -0.227  67.351   4.438  1.00  0.00     0.028 A 
ATOM     25  C   UNL     1      -2.300  67.015   2.562  1.00  0.00     0.075 A 
ATOM     26  C   UNL     1      -1.243  68.302   4.345  1.00  0.00     0.022 A 
ATOM     27  C   UNL     1      -2.280  68.144   3.416  1.00  0.00     0.064 A 
ATOM     28  C   UNL     1      -3.310  69.154   3.357  1.00  0.00     0.100 C 
ATOM     29  N   UNL     1      -4.134  69.965   3.312  1.00  0.00    -0.192 NA
BRANCH  25  30
ATOM     30  C   UNL     1      -3.414  66.824   1.551  1.00  0.00     0.417 C 
ATOM     31  F   UNL     1      -4.087  65.646   1.820  1.00  0.00    -0.166 F 
ATOM     32  F   UNL     1      -4.327  67.863   1.585  1.00  0.00    -0.166 F 
ATOM     33  F   UNL     1      -2.877  66.758   0.277  1.00  0.00    -0.166 F 
ENDBRANCH  25  30
ENDBRANCH   5  22
TORSDOF 4
ENDMDL
